31
# 
  C   1.85169793313022     -0.93334488140860      0.00092882922773
  C   2.09949024223953      0.45200738920240      0.00038554504744
  C   1.04771815764393      1.34079306734398     -0.00003306916414
  C   -0.26481367895862      0.86320302846932      0.00008901234237
  C   0.54600473288007     -1.42826723059968      0.00108716020941
  C   -0.49595263291424     -0.51014844659303      0.00064730784439
  C   -1.48888668442045      1.66655552925977     -0.00038723132424
  C   -2.69100668396956      0.75614073592949      0.00002027070273
  O   2.95245396157517     -1.71819462011260      0.00127713736667
  H   3.12713231756181      0.78822934589954      0.00030057257582
  H   1.21724377699132      2.41022171823589     -0.00045601525628
  H   0.34326610595273     -2.48892927095217      0.00151667832550
  S   -2.20768788664285     -0.93745022422800      0.00064369939744
  O   -1.55720549732308      2.88125745772019     -0.00071166719063
  C   -3.93068765818757      1.27724319541864     -0.00018283494740
  C   -5.24038608820253      0.65706626227974     -0.00001252866707
  C   -5.46466560992258     -0.72947853372890      0.00011141926314
  H   -4.63441700194980     -1.41960974745061      0.00004248757682
  C   -6.75376245888246     -1.23911224492401      0.00023255294601
  H   -6.90364922406458     -2.31161401236345      0.00031049205895
  C   -7.85118481464756     -0.38417818827931      0.00025335368481
  H   -8.85543536903116     -0.78830306581116      0.00035550169793
  C   -7.64982835412063      0.99214012535582      0.00013398046655
  H   -8.49730388210957      1.66560273919112      0.00013937358574
  C   -6.36250614989939      1.50326964829196     -0.00000649196370
  H   -6.20734612804421      2.57564122598870     -0.00011096366572
  H   -3.92871043727200      2.36466162562889     -0.00052958865829
  C   2.78792909629466     -3.12916863469280      0.00175050549960
  H   3.79148533509162     -3.54614491799752      0.00189468477423
  H   2.25367060594100     -3.46510129501521     -0.89156232214268
  H   2.25366397526078     -3.46450778005840      0.89528214838687
