30
# 
C       1.84911994      -1.38152444       0.16343647        6 
C       2.21985560      -0.02815790       0.29528438        6 
C       1.22247736       0.96497760       0.33588181        6 
C      -0.11929803       0.58421704       0.23035799        6 
C       0.49758747      -1.74150826       0.06879502        6 
C      -0.47786416      -0.74366276       0.09915526        6 
C      -1.26666558       1.47276839       0.24698585        6 
C      -2.53152081       0.73214079       0.04970712        6 
H       2.60754478      -2.15484867       0.13312118        1 
C       3.67249784       0.33548139       0.38594231        6 
H       1.48349815       2.01189603       0.43934524        1 
H       0.21642152      -2.78148725      -0.02682572        1 
S      -2.24168696      -1.04906799      -0.00370949       16 
O      -1.16552689       2.66067447       0.49266686        8 
C      -3.80752226       1.17606434      -0.01966335        6 
C      -4.36410216       2.55962113      -0.00111117        6 
C      -3.66815248       3.70355236      -0.44432908        6 
H      -2.67474850       3.65498316      -0.84527347        1 
C      -4.27968123       4.96046033      -0.43365590        6 
H      -3.73366570       5.82858142      -0.78408685        1 
C      -5.59447131       5.09665101       0.01076047        6 
H      -6.06514523       6.07085491       0.01684386        1 
C      -6.30582928       3.97299962       0.43196692        6 
H      -7.33020554       4.07595534       0.76589774        1 
C      -5.69949858       2.71402622       0.41896905        6 
H      -6.27627457       1.85727027       0.74764497        1 
H      -4.56148424       0.39356155      -0.05654326        1 
H       3.81660316       1.43437559       0.47385642        1 
H       4.19996975      -0.01531310      -0.52751522        1 
H       4.12359818      -0.15360766       1.27512688        1 
