34
# 
C       1.82236587      -1.63714032       0.03684695        6 
C       2.29822310      -0.31164063      -0.01733348        6 
C       1.37997566       0.75499113      -0.06339476        6 
C       0.00924052       0.47563367      -0.04982503        6 
C       0.44614322      -1.89585105       0.04487676        6 
C      -0.44593130      -0.82551659       0.00153945        6 
C      -1.07239164       1.45075610      -0.08148484        6 
C      -2.40636957       0.79665980      -0.01448209        6 
H       2.51538960      -2.46724609       0.07365474        1 
C       3.77426757      -0.04764384      -0.02047013        6 
H       1.72280601       1.78121066      -0.10328353        1 
H       0.07859668      -2.91344006       0.08547593        1 
S      -2.21908684      -1.00794636       0.00045008       16 
O      -0.85431902       2.64279807      -0.17684680        8 
C      -3.67931200       1.28133300       0.01812911        6 
C      -4.29631187       2.65406119       0.02081031        6 
C      -3.60935658       3.87732733       0.13179687        6 
H      -2.55870211       3.94065079       0.24503135        1 
C      -4.29373737       5.09775053       0.11818861        6 
H      -3.71817600       6.01024674       0.20355207        1 
C      -5.69411066       5.13185453       0.00257212        6 
O      -6.40328564       6.29024671      -0.01923445        8 
C      -6.38874102       3.92506478      -0.09079873        6 
H      -7.46863672       3.92476087      -0.17392287        1 
C      -5.70365879       2.70774719      -0.08137508        6 
H      -6.28730114       1.79807116      -0.15868817        1 
H      -4.42781275       0.49209335       0.03686840        1 
H       3.99072897       1.04003553      -0.06451169        1 
H       4.24344281      -0.53315203      -0.90026730        1 
H       4.23110688      -0.45666481       0.90418786        1 
C      -5.87309538       7.56347407       0.01645687        6 
H      -6.69953521       8.29994128      -0.01593263        1 
H      -5.21829768       7.73461053      -0.86395797        1 
H      -5.30073900       7.72068524       0.95387433        1 
